myETL/UCT_Source/20221102_1230_FO3_CH0.UCT
##C 2007.05.01
UCTE FILE CONVERTER FROM PSS/E RAW FILE
SBASE = 100.00000
##C---------------NODE BLOCK----------------------------------------------------------------------------------------------------
0         1         2         3         4         5         6         7         8        9         10        11        12       
12345678901234567890123456789012345678901234567890123456789012345678901234567890123456789012345678901234567890123456789012345678
<NodeID> <Optionname> * * < Spg> <PLast> <QLast> <PEin > <QEin > <PMin > <PMax > <QMin > <QMax > <Sta> <PPrim> <3ph  > < x_r > T
##N
##ZCH
SAATHA21 220AATHAL__1 0 0 236.28     0.0     0.0     0.0     0.0                                                                 
SAATHA22 220AATHAL__2 0 0 236.28     0.0     0.0     0.0     0.0                                                                 
SAATHA2A 220AATHAL__A 1 0 236.28  63.037  -9.073     0.0     0.0                                                                 
SAATHA2B 220AATHAL__B 1 0 236.28  65.747  -4.778     0.0     0.0                                                                 
SAIROL21 220AIROLO__1 0 0            0.0     0.0     0.0     0.0                                                                 
SAIROL22 220AIROLO__2 0 0 234.04     0.0     0.0     0.0     0.0                                                                 
SAIROL23 220AIROLO__3 0 0 234.04     0.0     0.0     0.0     0.0                                                                 
SAIROL2A 220AIROLO__A 1 0 234.04   3.799   -2.88     0.0     0.0                                                                 
SAIROL2B 220AIROLO__B 1 0            0.0     0.0     0.0     0.0     0.0   -29.0    14.5   -14.5                               H 
SAIROL2C 220AIROLO__C 1 2 233.33     0.0     0.0   -20.0    14.5     0.0   -29.0    14.5   -14.5                               H 
SALTGA21 220ALTGASS_1 0 0 236.33     0.0     0.0     0.0     0.0                                                                 
SALTGA22 220ALTGASS_2 0 0 236.33     0.0     0.0     0.0     0.0                                                                 
SALTGA2A 220ALTGASS_A 1 0 236.33  64.602  -8.249     0.0     0.0                                                                 
SALTGA2B 220ALTGASS_B 1 0 236.33  22.869  -2.331     0.0     0.0                                                                 
SASPHA11 380ASPHARD_1 0 0 408.88     0.0     0.0     0.0     0.0                                                                 
SASPHA12 380ASPHARD_2 0 0 408.88     0.0     0.0     0.0     0.0                                                                 
SASPHA13 380ASPHARD_3 0 0            0.0     0.0     0.0     0.0                                                                 
SASPHA1A 380ASPHARD_A 1 0 408.88 -14.563  11.586     0.0     0.0                                                                 
SAUWIE21 220AUWIESEN1 0 0 236.36     0.0     0.0     0.0     0.0                                                                 
SAUWIE22 220AUWIESEN2 0 0 236.36     0.0     0.0     0.0     0.0                                                                 
SAUWIE2A 220AUWIESENA 1 0 236.36  77.669   0.668     0.0     0.0                                                                 
SAUWIE2B 220AUWIESENB 1 0            0.0     0.0     0.0     0.0                                                                 
SAUWIE2C 220AUWIESENC 1 0 236.36  89.979 -23.457     0.0     0.0                                                                 
SAVEGN21 220AVEGNO__1 0 0 234.26     0.0     0.0     0.0     0.0                                                                 
SAVEGN22 220AVEGNO__2 0 0 234.26     0.0     0.0     0.0     0.0                                                                 
SAVEGN23 220AVEGNO__3 0 0 234.26     0.0     0.0     0.0     0.0                                                                 
SAVEGN24 220AVEGNO__4 0 0 234.26     0.0     0.0     0.0     0.0                                                                 
SAVEGN25 220AVEGNO__5 0 0 234.26     0.0     0.0     0.0     0.0                                                                 
SAVEGN26 220AVEGNO__6 0 0 234.26     0.0     0.0     0.0     0.0                                                                 
SAVEGN2A 220AVEGNO__A 1 0 234.26  10.184  -8.166     0.0     0.0                                                                 
SAVEGN2B 220AVEGNO__B 1 0            0.0     0.0     0.0     0.0                                                                 
SBAERE21 220BAERENBU1 0 0 233.30     0.0     0.0     0.0     0.0                                                                 
SBAERE22 220BAERENBU2 0 0 233.30     0.0     0.0     0.0     0.0                                                                 
SBAERE2A 220BAERENBUA 1 2 233.30     0.0     0.0     0.0  -8.188     0.0   -55.0    15.0   -16.0                               H 
SBAERE2B 220BAERENBUB 1 2 233.30     0.0     0.0     0.0  -8.188     0.0   -55.0    15.0   -16.0                               H 
SBAERE2C 220BAERENBUC 1 2 233.30     0.0     0.0     0.0  -8.188     0.0   -55.0    15.0   -16.0                               H 
SBAERE2D 220BAERENBUD 1 2 233.30     0.0     0.0     0.0  -8.188     0.0   -55.0    15.0   -16.0                               H 
SBANLI21 220BANLIEUE1 0 0            0.0     0.0     0.0     0.0                                                                 
SBANLI22 220BANLIEUE2 0 0 237.29     0.0     0.0     0.0     0.0                                                                 
SBANLI2A 220BANLIEUE_ 1 0 237.29  54.316 -40.999     0.0     0.0                                                                 
SBANLI2B 220BANLIEUE_ 1 0 237.29  57.402  29.087     0.0     0.0                                                                 
SBASSE11 380BASSECOU1 0 0 409.69     0.0     0.0     0.0     0.0                                                                 
SBASSE12 380BASSECOU2 0 0 409.69     0.0     0.0     0.0     0.0                                                                 
SBASSE1A 380BASSECOUA 1 0 409.69  52.967 -12.908     0.0     0.0                                                                 
SBASSE1B 380BASSECOUB 1 0 409.69  52.967 -12.908     0.0     0.0                                                                 
SBASSE21 220BASSECOU1 0 0 235.40     0.0     0.0     0.0     0.0                                                                 
SBASSE2T 220BASSECOUT 1 0            0.0     0.0     0.0     0.0                                                                 
SBASSE61 _50BASSECOU1 0 0 64.187     0.0     0.0     0.0     0.0                                                                 
SBATIA11 380BATIAZ__1 0 0 406.56     0.0     0.0     0.0     0.0                                                                 
SBATIA12 380BATIAZ__2 0 0 406.56     0.0     0.0     0.0     0.0                                                                 
SBATIA13 380BATIAZ__3 0 0 406.56     0.0     0.0     0.0     0.0                                                                 
SBATIA14 380BATIAZ__4 0 0 406.56     0.0     0.0     0.0     0.0                                                                 
SBATIA15 380BATIAZ__5 0 0 406.56     0.0     0.0     0.0     0.0                                                                 
SBATIA16 380BATIAZ__6 0 0 406.56     0.0     0.0     0.0     0.0                                                                 
SBATIA21 220BATIAZ__1 0 0            0.0     0.0     0.0     0.0                                                                 
SBATIA22 220BATIAZ__2 0 0 234.88     0.0     0.0     0.0     0.0                                                                 
SBATIA71 _11BATIAZ__1 0 0 25.773     0.0     0.0     0.0     0.0                                                                 
SBATIA72 _11BATIAZ__2 0 0 25.773     0.0     0.0     0.0     0.0                                                                 
SBATIA7A _11BATIAZ__A 1 2 25.773     0.0     0.0     0.0  -4.546     0.0   -95.0    42.0   -82.0                               H 
SBATIA7B _11BATIAZ__B 1 2 25.773     0.0     0.0     0.0  -4.546     0.0   -95.0    42.0   -82.0                               H 
SBAVON21 220BAVONA__1 0 0            0.0     0.0     0.0     0.0                                                                 
SBAVON22 220BAVONA__2 0 0 233.33     0.0     0.0     0.0     0.0                                                                 
SBAVON2A 220BAVONA__A 1 2 233.33     0.0     0.0     0.0  29.219     0.0   -70.0    50.0   -60.0                               H 
SBAVON2B 220BAVONA__B 1 2 233.33     0.0     0.0     0.0  29.219     0.0   -70.0    50.0   -60.0                               H 
SBENKE11 380BENKEN__1 0 0 404.95     0.0     0.0     0.0     0.0                                                                 
SBENKE12 380BENKEN__2 0 0 404.95     0.0     0.0     0.0     0.0                                                                 
SBENKE21 220BENKEN__1 0 0 236.71     0.0     0.0     0.0     0.0                                                                 
SBENKE22 220BENKEN__2 0 0 236.71     0.0     0.0     0.0     0.0                                                                 
SBENKE2T 220BENKEN__T 1 0            0.0     0.0     0.0     0.0                                                                 
SBENKE61 _50BENKEN__1 0 0 69.880     0.0     0.0     0.0     0.0                                                                 
SBEZNA11 380BEZNAU__1 0 0            0.0     0.0     0.0     0.0                                                                 
SBEZNA12 380BEZNAU__2 0 0 409.45     0.0     0.0     0.0     0.0                                                                 
SBEZNA21 220BEZNAU__1 0 0 237.29     0.0     0.0     0.0     0.0                                                                 
SBEZNA22 220BEZNAU__2 0 0 237.29     0.0     0.0     0.0     0.0                                                                 
SBEZNA2A 220BEZNAU__A 1 0 237.29  -0.296    8.16     0.0     0.0                                                                 
SBEZNA2B 220BEZNAU__B 1 2 237.29     0.0     0.0 -180.75  35.279    50.0  -182.5    97.3   -97.3                               N 
SBEZNA2C 220BEZNAU__C 1 0 237.29  22.324 -41.156     0.0     0.0                                                                 
SBEZNA2D 220BEZNAU__D 1 2 237.29     0.0     0.0 -180.75  24.597    50.0  -182.5    97.3   -97.3                               N 
SBEZNA2E 220BEZNAU__E 1 2 237.29     0.0     0.0 -180.75  24.597    50.0  -182.5    97.3   -97.3                               N 
SBEZNA2F 220BEZNAU__F 1 2 237.29     0.0     0.0 -180.75  35.279    50.0  -182.5    97.3   -97.3                               N 
SBEZNA2T 220BEZNAU__T 1 0            0.0     0.0     0.0     0.0                                                                 
SBEZNA71 _27BEZNAU__1 0 0 27.384     0.0     0.0     0.0     0.0                                                                 
SBIASC21 220BIASCA__1 0 0 233.33     0.0     0.0     0.0     0.0                                                                 
SBIASC22 220BIASCA__2 0 0 233.33     0.0     0.0     0.0     0.0                                                                 
SBIASC2A 220BIASCA__A 1 2 233.33     0.0     0.0     0.0  34.008     0.0  -116.0    52.5   -66.5                               H 
SBIASC2B 220BIASCA__B 1 0            0.0     0.0     0.0     0.0     0.0  -115.0    52.5   -66.5                               H 
SBIASC2C 220BIASCA__C 1 2 233.33     0.0     0.0     0.0  34.008     0.0  -116.0    52.5   -66.5                               H 
SBIASC2D 220BIASCA__D 1 2 233.33     0.0     0.0     0.0  34.008     0.0   -72.0    52.5   -66.5                               H 
SBICKI11 380BICKIGEN1 0 0 409.73     0.0     0.0     0.0     0.0                                                                 
SBICKI12 380BICKIGEN2 0 0 409.73     0.0     0.0     0.0     0.0                                                                 
SBICKI1T 380BICKIGENT 1 0            0.0     0.0     0.0     0.0                                                                 
SBICKI1U 380BICKIGENU 1 0            0.0     0.0     0.0     0.0                                                                 
SBICKI21 220BICKIGEN1 0 0            0.0     0.0     0.0     0.0                                                                 
SBICKI22 220BICKIGEN2 0 0 236.93     0.0     0.0     0.0     0.0                                                                 
SBICKI2A 220BICKIGENA 1 0 236.93 102.393 -25.921     0.0     0.0                                                                 
SBICKI2B 220BICKIGENB 1 0 236.93  96.648  10.059     0.0     0.0                                                                 
SBICKI61 _50BICKIGEN1 0 0            0.0     0.0     0.0     0.0                                                                 
SBICKI62 _50BICKIGEN2 0 0 70.120     0.0     0.0     0.0     0.0                                                                 
SBIRRG21 220BIRR_GT_1 0 0 237.28     0.0     0.0     0.0     0.0                                                                 
SBIRRG2A 220BIRR_GT_A 1 2 237.29     0.0     0.0     0.0    -1.0     0.0  -330.0     1.0    -1.0                               G 
SBIRR_21 220BIRR____1 0 0 237.26     0.0     0.0     0.0     0.0                                                                 
SBIRR_2A 220BIRR____A 1 0 237.26  85.846   0.011     0.0     0.0                                                                 
SBITSC21 220BITSCH__1 0 0 233.33     0.0     0.0     0.0     0.0                                                                 
SBITSC22 220BITSCH__2 0 0 233.33     0.0     0.0     0.0     0.0                                                                 
SBITSC23 220BITSCH__3 0 0 233.33     0.0     0.0     0.0     0.0                                                                 
SBITSC2A 220BITSCH__A 1 0 233.33   5.465  -0.701     0.0     0.0                                                                 
SBITSC2B 220BITSCH__B 1 2 233.33     0.0     0.0     0.0   6.061     0.0   -97.0    49.6   -57.8                               H 
SBITSC2C 220BITSCH__C 1 0            0.0     0.0     0.0     0.0     0.0   -97.0    49.6   -57.8                               H 
SBITSC2D 220BITSCH__D 1 2 233.33     0.0     0.0     0.0   6.061     0.0  -133.0    49.6   -57.8                               H 
SBONAD11 380BONADUZ_1 0 0            0.0     0.0     0.0     0.0                                                                 
SBONAD12 380BONADUZ_2 0 0 406.60     0.0     0.0     0.0     0.0                                                                 
SBONAD21 220BONADUZ_1 0 0 237.42     0.0     0.0     0.0     0.0                                                                 
SBONAD2A 220BONADUZ_A 1 0 237.42  -5.624  29.272     0.0     0.0                                                                 
SBOTTE21 220BOTTEREN1 0 0 234.55     0.0     0.0     0.0     0.0                                                                 
SBOTTE22 220BOTTEREN2 0 0 234.55     0.0     0.0     0.0     0.0                                                                 
SBOTTE23 220BOTTEREN3 0 0            0.0     0.0     0.0     0.0                                                                 
SBOTTE2A 220BOTTERENA 1 0 234.55  13.425  10.534     0.0     0.0                                                                 
SBOTTE2B 220BOTTERENB 1 0 234.55  22.843  20.319     0.0     0.0                                                                 
SBREIT11 380BREITE__1 0 0 409.33     0.0     0.0     0.0     0.0                                                                 
SBREIT12 380BREITE__2 0 0 409.33     0.0     0.0     0.0     0.0                                                                 
SBREIT1T 380BREITE__T 1 0            0.0     0.0     0.0     0.0                                                                 
SBREIT21 220BREITE__1 0 0 235.54     0.0     0.0     0.0     0.0                                                                 
SBREIT22 220BREITE__2 0 0 235.54     0.0     0.0     0.0     0.0                                                                 
SBREIT71 _16BREITE__1 0 0 27.324     0.0     0.0     0.0     0.0                                                                 
SBREIT7A _16BREITE__A 1 0 27.324     0.0     0.0     0.0     0.0                                                                 
SBREIT7B _16BREITE__B 1 0 27.324   0.193  52.353     0.0     0.0                                                                 
SCASTA21 220CASTASEG1 0 0 235.15     0.0     0.0     0.0     0.0                                                                 
SCASTA22 220CASTASEG2 0 0 235.15     0.0     0.0     0.0     0.0                                                                 
SCASTA23 220CASTASEG3 0 0 235.15     0.0     0.0     0.0     0.0                                                                 
SCASTA2A 220CASTASEGA 1 2 235.15     0.0     0.0  -4.301 -12.428     0.0   -50.0    13.0   -13.0                               H 
SCASTA2B 220CASTASEGB 1 2 235.15     0.0     0.0  -4.301 -12.428     0.0   -50.0    13.0   -13.0                               H 
SCAVER21 220CAVERGNO1 0 0 233.77     0.0     0.0     0.0     0.0                                                                 
SCAVER22 220CAVERGNO2 0 0 233.77     0.0     0.0     0.0     0.0                                                                 
SCAVER71 _12CAVERGNO1 0 0 27.344     0.0     0.0     0.0     0.0                                                                 
SCAVER72 _12CAVERGNO2 0 0 27.344     0.0     0.0     0.0     0.0                                                                 
SCAVER7A _12CAVERGNOA 1 2 27.344     0.0     0.0     0.0   0.477     0.0   -26.0    13.0   -26.0                               H 
SCAVER7B _12CAVERGNOB 1 2 27.344     0.0     0.0     0.0   0.477     0.0   -26.0    13.0   -26.0                               H 
SCAVER7C _12CAVERGNOC 1 2 27.344     0.0     0.0     0.0   0.477     0.0   -26.0    13.0   -26.0                               H 
SCAVER7D _12CAVERGNOD 1 2 27.344     0.0     0.0     0.0   0.477     0.0   -26.0    13.0   -26.0                               H 
SCHAMO11 380CHAMOSON1 0 0 405.00     0.0     0.0     0.0     0.0                                                                 
SCHAMO12 380CHAMOSON2 0 0 405.00     0.0     0.0     0.0     0.0                                                                 
SCHAMO13 380CHAMOSON3 0 0 405.00     0.0     0.0     0.0     0.0                                                                 
SCHAMO14 380CHAMOSON4 0 0 405.00     0.0     0.0     0.0     0.0                                                                 
SCHAMO15 380CHAMOSON5 0 0 405.00     0.0     0.0     0.0     0.0                                                                 
SCHAMO16 380CHAMOSON6 0 0 405.00     0.0     0.0     0.0     0.0                                                                 
SCHAMO1A 380CHAMOSONA 1 2 405.00     0.0     0.0     0.0  22.553     0.0  -668.0   324.0  -286.0                               H 
SCHAMO1B 380CHAMOSONB 1 2 405.00     0.0     0.0     0.0  22.553     0.0  -668.0   324.0  -286.0                               H 
SCHAMO1C 380CHAMOSONC 1 2 405.00     0.0     0.0     0.0  22.553     0.0  -668.0   324.0  -286.0                               H 
SCHAMO1T 380CHAMOSONT 1 0            0.0     0.0     0.0     0.0                                                                 
SCHAMO21 220CHAMOSON1 0 0 235.26     0.0     0.0     0.0     0.0                                                                 
SCHAMO22 220CHAMOSON2 0 0            0.0     0.0     0.0     0.0                                                                 
SCHAMO23 220CHAMOSON3 0 0 235.26     0.0     0.0     0.0     0.0                                                                 
SCHAMO24 220CHAMOSON4 0 0            0.0     0.0     0.0     0.0                                                                 
SCHAMO25 220CHAMOSON5 0 0 235.26     0.0     0.0     0.0     0.0                                                                 
SCHAMO26 220CHAMOSON6 0 0 235.26     0.0     0.0     0.0     0.0                                                                 
SCHAMO27 220CHAMOSON7 0 0 235.26     0.0     0.0     0.0     0.0                                                                 
SCHAMO28 220CHAMOSON8 0 0 235.26     0.0     0.0     0.0     0.0                                                                 
SCHAMO29 220CHAMOSON9 0 0 235.26     0.0     0.0     0.0     0.0                                                                 
SCHAMO2A 220CHAMOSONA 0 0 235.26     0.0     0.0     0.0     0.0                                                                 
SCHAMO2B 220CHAMOSONB 0 0 235.26     0.0     0.0     0.0     0.0                                                                 
SCHAMO2C 220CHAMOSONC 0 0 235.26     0.0     0.0     0.0     0.0                                                                 
SCHAMO2D 220CHAMOSOND 0 0            0.0     0.0     0.0     0.0                                                                 
SCHAMO2E 220CHAMOSONE 0 0 235.26     0.0     0.0     0.0     0.0                                                                 
SCHAMO2F 220CHAMOSONF 0 0            0.0     0.0     0.0     0.0                                                                 
SCHAMO2G 220CHAMOSONG 0 0 235.26     0.0     0.0     0.0     0.0                                                                 
SCHAMO2I 220CHAMOSONI 1 0            0.0     0.0     0.0     0.0                                                                 
SCHAMO2J 220CHAMOSONJ 1 0            0.0     0.0     0.0     0.0     0.0   -64.0    32.0   -32.0                               H 
SCHAMO2K 220CHAMOSONK 1 0 235.26   0.268  -0.427     0.0     0.0                                                                 
SCHAMO2L 220CHAMOSONL 1 0            0.0     0.0     0.0     0.0     0.0   -64.0    32.0   -32.0                               H 
SCHAMO2M 220CHAMOSONM 1 0            0.0     0.0     0.0     0.0     0.0   -64.0    32.0   -32.0                               H 
SCHAMO2N 220CHAMOSONN 1 0            0.0     0.0     0.0     0.0     0.0   -64.0    32.0   -32.0                               H 
SCHAMO2O 220CHAMOSONO 1 0            0.0     0.0     0.0     0.0     0.0   -64.0    32.0   -32.0                               H 
SCHAMO2P 220CHAMOSONP 1 0            0.0     0.0     0.0     0.0     0.0   -64.0    32.0   -32.0                               H 
SCHAMO71 _30CHAMOSON1 0 0 27.118     0.0     0.0     0.0     0.0                                                                 
SCHAMO7A _30CHAMOSONA 1 0 27.118  -0.466  -0.387     0.0     0.0                                                                 
SCHAND21 220CHANDOLI1 0 0 235.26     0.0     0.0     0.0     0.0                                                                 
SCHAND22 220CHANDOLI2 0 0 235.26     0.0     0.0     0.0     0.0                                                                 
SCHAND23 220CHANDOLI3 0 0 235.26     0.0     0.0     0.0     0.0                                                                 
SCHAND2A 220CHANDOLIA 1 0            0.0     0.0     0.0     0.0                                                                 
SCHAND2B 220CHANDOLIB 1 0 235.26  22.973   3.197     0.0     0.0                                                                 
SCHATE11 380CHATELAR1 0 0 406.85     0.0     0.0     0.0     0.0                                                                 
SCHATE12 380CHATELAR2 0 0 406.85     0.0     0.0     0.0     0.0                                                                 
SCHATE13 380CHATELAR3 0 0 406.85     0.0     0.0     0.0     0.0                                                                 
SCHATE14 380CHATELAR4 0 0 406.85     0.0     0.0     0.0     0.0                                                                 
SCHATE15 380CHATELAR5 0 0 406.85     0.0     0.0     0.0     0.0                                                                 
SCHATE16 380CHATELAR6 0 0 406.85     0.0     0.0     0.0     0.0                                                                 
SCHATE17 380CHATELAR7 0 0            0.0     0.0     0.0     0.0                                                                 
SCHATE1A 380CHATELARA 1 0            0.0     0.0     0.0     0.0                                                                 
SCHATE21 220CHATELAR1 0 0 234.08     0.0     0.0     0.0     0.0                                                                 
SCHATE22 220CHATELAR2 0 0 234.08     0.0     0.0     0.0     0.0                                                                 
SCHATE23 220CHATELAR3 0 0            0.0     0.0     0.0     0.0                                                                 
SCHATE2T 220CHATELART 1 0            0.0     0.0     0.0     0.0                                                                 
SCHATE71 _27CHATELAR1 0 0 25.937     0.0     0.0     0.0     0.0                                                                 
SCHIPP11 380CHIPPIS_1 0 0 404.65     0.0     0.0     0.0     0.0                                                                 
SCHIPP12 380CHIPPIS_2 0 0 404.65     0.0     0.0     0.0     0.0                                                                 
SCHIPP13 380CHIPPIS_3 0 0 404.65     0.0     0.0     0.0     0.0                                                                 
SCHIPP14 380CHIPPIS_4 0 0 404.65     0.0     0.0     0.0     0.0                                                                 
SCHIPP15 380CHIPPIS_5 0 0 404.65     0.0     0.0     0.0     0.0                                                                 
SCHIPP16 380CHIPPIS_6 0 0 404.65     0.0     0.0     0.0     0.0                                                                 
SCHIPP1A 380CHIPPIS_A 1 0            0.0     0.0     0.0     0.0                                                                 
SCHIPP21 220CHIPPIS_1 0 0 235.29     0.0     0.0     0.0     0.0                                                                 
SCHIPP22 220CHIPPIS_2 0 0 235.29     0.0     0.0     0.0     0.0                                                                 
SCHIPP23 220CHIPPIS_3 0 0 235.29     0.0     0.0     0.0     0.0                                                                 
SCHIPP24 220CHIPPIS_4 0 0 235.29     0.0     0.0     0.0     0.0                                                                 
SCHIPP25 220CHIPPIS_5 0 0 235.29     0.0     0.0     0.0     0.0                                                                 
SCHIPP26 220CHIPPIS_6 0 0 235.29     0.0     0.0     0.0     0.0                                                                 
SCHIPP2A 220CHIPPIS_A 1 0 235.29  -6.947   8.007     0.0     0.0                                                                 
SCHIPP2B 220CHIPPIS_B 1 0 235.29  -4.796  -5.758     0.0     0.0                                                                 
SCHIPP2C 220CHIPPIS_C 1 0 235.29  -6.845   7.886     0.0     0.0                                                                 
SCHIPP2T 220CHIPPIS_T 1 0            0.0     0.0     0.0     0.0                                                                 
SCHIPP71 _27CHIPPIS_1 0 0 25.900     0.0     0.0     0.0     0.0                                                                 
SCRANS21 220CRANS___1 0 0 237.98     0.0     0.0     0.0     0.0                                                                 
SCRANS22 220CRANS___2 0 0 237.98     0.0     0.0     0.0     0.0                                                                 
SCRANS23 220CRANS___3 0 0            0.0     0.0     0.0     0.0                                                                 
SCRANS2A 220CRANS____ 1 0 237.98  45.588 -30.175     0.0     0.0                                                                 
SEGLIS21 220EGLISAU_1 0 0 236.45     0.0     0.0     0.0     0.0                                                                 
SEGLIS2A 220EGLISAU_A 1 0            0.0     0.0     0.0     0.0                                                                 
SFAELL21 220FAELLAND1 0 0 236.10     0.0     0.0     0.0     0.0                                                                 
SFAELL22 220FAELLAND2 0 0 236.10     0.0     0.0     0.0     0.0                                                                 
SFAELL23 220FAELLAND3 0 0 236.10     0.0     0.0     0.0     0.0                                                                 
SFAELL24 220FAELLAND4 0 0            0.0     0.0     0.0     0.0                                                                 
SFAELL2A 220FAELLANDA 1 0            0.0     0.0     0.0     0.0                                                                 
SFAELL2B 220FAELLANDB 1 0 236.10   84.05  -7.494     0.0     0.0                                                                 
SFAELL2C 220FAELLANDC 1 0 236.10  63.474  14.284     0.0     0.0                                                                 
SFAELL2D 220FAELLANDD 1 0 236.10  63.474  14.284     0.0     0.0                                                                 
SFERRE21 220FERRERA_1 0 0 233.33     0.0     0.0     0.0     0.0                                                                 
SFERRE2A 220FERRERA_A 1 2 233.33     0.0     0.0   9.964   -2.32    24.8   -60.0    13.0   -16.0                               H 
SFERRE2B 220FERRERA_B 1 2 233.33     0.0     0.0   9.964   -2.32    24.8   -60.0    13.0   -16.0                               H 
SFERRE2C 220FERRERA_C 1 2 233.33     0.0     0.0  16.071   -2.32    40.0   -60.0    13.0   -16.0                               H 
SFIESC21 220FIESCH__1 0 0 234.97     0.0     0.0     0.0     0.0                                                                 
SFIESC2A 220FIESCH__A 1 0 234.97  -3.322  -6.697     0.0     0.0                                                                 
SFILIS11 380FILISUR_1 0 0 406.20     0.0     0.0     0.0     0.0                                                                 
SFILIS12 380FILISUR_2 0 0            0.0     0.0     0.0     0.0                                                                 
SFILIS1A 380FILISUR_A 1 0 406.20 -11.817   9.942     0.0     0.0                                                                 
SFIONG21 220FIONNAY_1 0 0 235.33     0.0     0.0     0.0     0.0                                                                 
SFIONG22 220FIONNAY_2 0 0 235.33     0.0     0.0     0.0     0.0                                                                 
SFIONG23 220FIONNAY_3 0 0 235.33     0.0     0.0     0.0     0.0                                                                 
SFIONG24 220FIONNAY_4 0 0            0.0     0.0     0.0     0.0                                                                 
SFIONG25 220FIONNAY_5 0 0            0.0     0.0     0.0     0.0                                                                 
SFIONG26 220FIONNAY_6 0 0            0.0     0.0     0.0     0.0                                                                 
SFIONG2A 220FIONNAY_A 1 0            0.0     0.0     0.0     0.0     0.0   -52.8    26.4   -26.4                               H 
SFIONG2B 220FIONNAY_B 1 0            0.0     0.0     0.0     0.0     0.0   -52.8    26.4   -26.4                               H 
SFIONG2C 220FIONNAY_C 1 0            0.0     0.0     0.0     0.0     0.0   -52.8    26.4   -26.4                               H 
SFIONG2D 220FIONNAY_D 1 0            0.0     0.0     0.0     0.0     0.0   -52.8    26.4   -26.4                               H 
SFIONG2E 220FIONNAY_E 1 0            0.0     0.0     0.0     0.0     0.0   -52.8    26.4   -26.4                               H 
SFIONG2F 220FIONNAY_F 1 0            0.0     0.0     0.0     0.0     0.0   -52.8    26.4   -26.4                               H 
SFIONN21 220FIONNAY_1 0 0 234.52     0.0     0.0     0.0     0.0                                                                 
SFIONN2A 220FIONNAY_A 1 2 234.52     0.0     0.0  -1.589   7.784     0.0   -46.0    17.3    -9.0                               H 
SFIONN2B 220FIONNAY_B 1 2 234.52     0.0     0.0  -1.589   7.784     0.0   -46.0    17.3    -9.0                               H 
SFIONN2C 220FIONNAY_C 1 2 234.52     0.0     0.0  -1.589   7.784     0.0   -46.0    17.3    -9.0                               H 
SFLUME21 220FLUMENTH1 0 0 236.83     0.0     0.0     0.0     0.0                                                                 
SFLUME22 220FLUMENTH2 0 0 236.83     0.0     0.0     0.0     0.0                                                                 
SFLUME2A 220FLUMENTHA 1 0 236.83  10.581   2.611     0.0     0.0                                                                 
SFLUME2B 220FLUMENTHB 1 0 236.83  10.581   2.611     0.0     0.0                                                                 
SFLUME2C 220FLUMENTHC 1 0 236.83  45.008  -29.52     0.0     0.0                                                                 
SFORET21 220FORETAIL1 0 0 237.75     0.0     0.0     0.0     0.0                                                                 
SFORET22 220FORETAIL2 0 0 237.75     0.0     0.0     0.0     0.0                                                                 
SFORET23 220FORETAIL3 0 0 237.75     0.0     0.0     0.0     0.0                                                                 
SFORET24 220FORETAIL4 0 0 237.75     0.0     0.0     0.0     0.0                                                                 
SFORET25 220FORETAIL5 0 0 237.75     0.0     0.0     0.0     0.0                                                                 
SFORET26 220FORETAIL6 0 0 237.75     0.0     0.0     0.0     0.0                                                                 
SFORET2A 220FORETAILA 1 0 237.75  73.925  -1.222     0.0     0.0                                                                 
SFORET2B 220FORETAILB 1 0 237.75  73.729   -1.13     0.0     0.0                                                                 
SFORET2C 220FORETAILC 1 0 237.75  10.893 -10.071     0.0     0.0                                                                 
SFORET2D 220FORETAILD 1 0 237.75   10.58 -10.347     0.0     0.0                                                                 
SFROLO21 220FROLOO__1 0 0 234.60     0.0     0.0     0.0     0.0                                                                 
SFROLO22 220FROLOO__2 0 0 234.60     0.0     0.0     0.0     0.0                                                                 
SFROLO23 220FROLOO__3 0 0 234.60     0.0     0.0     0.0     0.0                                                                 
SFROLO24 220FROLOO__4 0 0 234.60     0.0     0.0     0.0     0.0                                                                 
SFROLO25 220FROLOO__5 0 0            0.0     0.0     0.0     0.0                                                                 
SFROLO26 220FROLOO__6 0 0            0.0     0.0     0.0     0.0                                                                 
SFROLO2A 220FROLOO__A 1 0            0.0     0.0     0.0     0.0                                                                 
SFROLO2B 220FROLOO__B 1 0 234.60  78.853  -2.595     0.0     0.0                                                                 
SFROLO2C 220FROLOO__C 1 0            0.0     0.0     0.0     0.0                                                                 
SFROLO2D 220FROLOO__D 1 0 234.60  39.837   3.149     0.0     0.0                                                                 
SGABI_21 220GABI____1 0 0            0.0     0.0     0.0     0.0                                                                 
SGABI_2A 220GABI____A 1 0            0.0     0.0     0.0     0.0     3.0  -12.54     6.3    -6.3                               H 
SGALMI21 220GALMIZ__1 0 0            0.0     0.0     0.0     0.0                                                                 
SGALMI22 220GALMIZ__2 0 0 235.20     0.0     0.0     0.0     0.0                                                                 
SGALMI2A 220GALMIZ___ 1 0 235.20  64.078   8.226     0.0     0.0                                                                 
SGALMI2B 220GALMIZ___ 1 0 235.20  64.078   8.226     0.0     0.0                                                                 
SGERLA21 220GERLAFIN1 0 0 236.50     0.0     0.0     0.0     0.0                                                                 
SGERLA2A 220GERLAFINA 1 0 236.50  46.715  15.761     0.0     0.0                                                                 
SGISWI21 220GISWIL__1 0 0 235.59     0.0     0.0     0.0     0.0                                                                 
SGISWI2A 220GISWIL__A 1 0 235.59  26.702  -7.246     0.0     0.0                                                                 
SGOESC21 220GOESCHEN1 0 0 234.38     0.0     0.0     0.0     0.0                                                                 
SGOESC2A 220GOESCHENA 1 0 234.38  -1.422  12.354     0.0     0.0                                                                 
SGOESC2B 220GOESCHENB 1 2 234.38     0.0     0.0     0.0  16.616     0.0   -45.0    38.5    -5.0                               H 
SGOESC2C 220GOESCHENC 1 2 234.38     0.0     0.0     0.0  16.616     0.0   -45.0    38.5    -5.0                               H 
SGOESG11 380GOESGEN_1 0 0 405.00     0.0     0.0     0.0     0.0                                                                 
SGOESG12 380GOESGEN_2 0 0 405.00     0.0     0.0     0.0     0.0                                                                 
SGOESG1A 380GOESGEN_A 1 3 405.00     0.0     0.0 -992.78 398.212    60.0 -1020.0   225.0  -250.0                               N 
SGOESG21 220GOESGEN_1 0 0 236.71     0.0     0.0     0.0     0.0                                                                 
SGOESG22 220GOESGEN_2 0 0 236.71     0.0     0.0     0.0     0.0                                                                 
SGOESG23 220GOESGEN_3 0 0 236.71     0.0     0.0     0.0     0.0                                                                 
SGOESG24 220GOESGEN_4 0 0 236.71     0.0     0.0     0.0     0.0                                                                 
SGOESG25 220GOESGEN_5 0 0 236.71     0.0     0.0     0.0     0.0                                                                 
SGOESG26 220GOESGEN_6 0 0 236.71     0.0     0.0     0.0     0.0                                                                 
SGOESG27 220GOESGEN_7 0 0            0.0     0.0     0.0     0.0                                                                 
SGOESG28 220GOESGEN_8 0 0            0.0     0.0     0.0     0.0                                                                 
SGOESG29 220GOESGEN_9 0 0            0.0     0.0     0.0     0.0                                                                 
SGOESG2B 220GOESGEN_B 1 0 236.71  -0.552  -5.151     0.0     0.0                                                                 
SGOESG2C 220GOESGEN_C 1 0 236.71  12.029     2.3     0.0     0.0                                                                 
SGOESG2D 220GOESGEN_D 1 0 236.71  24.056   1.194     0.0     0.0                                                                 
SGOESG2E 220GOESGEN_E 1 0 236.71    12.1   2.407     0.0     0.0                                                                 
SGOESG2T 220GOESGEN_T 1 0            0.0     0.0     0.0     0.0                                                                 
SGOESG71 _16GOESGEN_1 0 0 27.130     0.0     0.0     0.0     0.0                                                                 
SGONDO21 220GONDO___1 0 0 233.97     0.0     0.0     0.0     0.0                                                                 
SGONDO71 _10GONDO___1 0 0 26.249     0.0     0.0     0.0     0.0                                                                 
SGONDO7A _10GONDO___A 1 0 26.249   0.803  -0.495     0.0     0.0                                                                 
SGONDO7B _10GONDO___B 1 2 26.249     0.0     0.0     0.0   0.981     0.0   -19.0    11.3   -14.3                               H 
SGONDO7C _10GONDO___C 1 2 26.249     0.0     0.0     0.0   0.981     0.0   -19.0    11.3   -14.3                               H 
SGONDO7D _10GONDO___D 1 2 26.249     0.0     0.0     0.0   0.981     0.0   -23.0    11.3   -14.3                               H 
SGORDU21 220GORDUNO_1 0 0 234.29     0.0     0.0     0.0     0.0                                                                 
SGRIMS21 220GRIMSEL_1 0 0 234.98     0.0     0.0     0.0     0.0                                                                 
SGRIMS22 220GRIMSEL_2 0 0 234.98     0.0     0.0     0.0     0.0                                                                 
SGRIMS23 220GRIMSEL_3 0 0 234.98     0.0     0.0     0.0     0.0                                                                 
SGRIMS24 220GRIMSEL_4 0 0 234.98     0.0     0.0     0.0     0.0                                                                 
SGRIMS2A 220GRIMSEL_A 1 2 233.33     0.0     0.0  -4.337    58.0     0.0   -60.0    58.0   -42.0                               H 
SGRIMS2B 220GRIMSEL_B 1 0            0.0     0.0     0.0     0.0    86.0   -95.0    70.0   -35.0                               H 
SGRIMS2C 220GRIMSEL_C 1 0            0.0     0.0     0.0     0.0    88.0   -95.0    70.0   -35.0                               H 
SGRIMS2D 220GRIMSEL_D 1 0            0.0     0.0     0.0     0.0    88.0   -95.0    70.0   -35.0                               H 
SGRIMS2E 220GRIMSEL_E 1 0            0.0     0.0     0.0     0.0    88.0   -95.0    70.0   -35.0                               H 
SGRYNA21 220GRYNAU__1 0 0 237.03     0.0     0.0     0.0     0.0                                                                 
SGRYNA22 220GRYNAU__2 0 0 237.03     0.0     0.0     0.0     0.0                                                                 
SGRYNA2A 220GRYNAU__A 1 0 237.03  60.259   0.499     0.0     0.0                                                                 
SGRYNA2B 220GRYNAU__B 1 0 237.03   24.18  -4.888     0.0     0.0                                                                 
SGRYNA2C 220GRYNAU__C 1 0 237.03   23.83  -4.801     0.0     0.0                                                                 
SGSTAA21 220GSTAAD__1 0 0            0.0     0.0     0.0     0.0                                                                 
SGSTAA22 220GSTAAD__2 0 0            0.0     0.0     0.0     0.0                                                                 
SGSTAA23 220GSTAAD__3 0 0            0.0     0.0     0.0     0.0                                                                 
SGSTAA24 220GSTAAD__4 0 0            0.0     0.0     0.0     0.0                                                                 
SGSTAA2A 220GSTAAD__A 1 0            0.0     0.0     0.0     0.0                                                                 
SGSTAA2B 220GSTAAD__B 1 0            0.0     0.0     0.0     0.0                                                                 
SHAND171 _11HANDECK_1 0 0 26.470     0.0     0.0     0.0     0.0                                                                 
SHAND172 _11HANDECK_2 0 0 26.470     0.0     0.0     0.0     0.0                                                                 
SHAND17A _11HANDECK_A 1 2 26.470     0.0     0.0  -0.572   2.888     0.0   -24.0    19.0   -16.0                               H 
SHAND17B _11HANDECK_B 1 0            0.0     0.0     0.0     0.0     0.0   -25.0    19.0   -16.0                               H 
SHAND271 _13HANDECK_1 0 0 26.470     0.0     0.0     0.0     0.0                                                                 
SHAND272 _13HANDECK_2 0 0 26.470     0.0     0.0     0.0     0.0                                                                 
SHAND273 _13HANDECK_3 0 0 26.470     0.0     0.0     0.0     0.0                                                                 
SHAND274 _13HANDECK_4 0 0 26.470     0.0     0.0     0.0     0.0                                                                 
SHAND27A _13HANDECK_A 1 2 26.470     0.0     0.0  -0.762   1.796     0.0   -32.0    24.0   -24.0                               H 
SHAND27B _13HANDECK_B 1 2 26.470     0.0     0.0  -0.762   1.796     0.0   -32.0    24.0   -24.0                               H 
SHAND27C _13HANDECK_C 1 2 26.470     0.0     0.0  -0.762   1.821     0.0   -32.0    24.0   -24.0                               H 
SHAND27D _13HANDECK_D 1 2 26.470     0.0     0.0  -0.762   1.821     0.0   -32.0    24.0   -24.0                               H 
SHAND27E _13HANDECK_E 1 2 26.470     0.0     0.0  -2.143  23.283     0.0   -90.0    46.7   -46.7                               H 
SHAND27F _13HANDECK_F 1 2 26.470     0.0     0.0   -1.31   3.641    47.8   -55.0    36.0   -24.0                               H 
SHANDE21 220HANDECK_1 0 0 234.92     0.0     0.0     0.0     0.0                                                                 
SHANDE22 220HANDECK_2 0 0 234.92     0.0     0.0     0.0     0.0                                                                 
SHANDE23 220HANDECK_3 0 0 234.92     0.0     0.0     0.0     0.0                                                                 
SHANDE24 220HANDECK_4 0 0 234.92     0.0     0.0     0.0     0.0                                                                 
SHAUTE21 220HAUTERIV1 0 0 235.07     0.0     0.0     0.0     0.0                                                                 
SHAUTE22 220HAUTERIV2 0 0 235.07     0.0     0.0     0.0     0.0                                                                 
SHAUTE23 220HAUTERIV3 0 0            0.0     0.0     0.0     0.0                                                                 
SHAUTE2A 220HAUTERIVA 1 0 235.07  31.699   5.937     0.0     0.0                                                                 
SHAUTE2B 220HAUTERIVB 1 0 235.07  31.699   5.937     0.0     0.0                                                                 
SILANZ21 220ILANZ___1 0 0 237.85     0.0     0.0     0.0     0.0                                                                 
SILANZ2A 220ILANZ___A 1 2 237.43     0.0     0.0   -49.0    52.0     0.0   -92.0    52.0   -52.0                               H 
SINGEN21 220INGENBOH1 0 0 235.84     0.0     0.0     0.0     0.0                                                                 
SINGEN22 220INGENBOH2 0 0 235.84     0.0     0.0     0.0     0.0                                                                 
SINGEN2A 220INGENBOHA 1 0 235.84  10.796   5.573     0.0     0.0                                                                 
SINGEN2B 220INGENBOHB 1 0 235.84   10.91   4.639     0.0     0.0                                                                 
SINNER21 220INNERTKI1 0 0 235.56     0.0     0.0     0.0     0.0                                                                 
SINNER22 220INNERTKI2 0 0 235.56     0.0     0.0     0.0     0.0                                                                 
SINNER23 220INNERTKI3 0 0 235.56     0.0     0.0     0.0     0.0                                                                 
SINNER24 220INNERTKI4 0 0 235.56     0.0     0.0     0.0     0.0                                                                 
SINNER25 220INNERTKI5 0 0 235.56     0.0     0.0     0.0     0.0                                                                 
SINNER26 220INNERTKI6 0 0 235.56     0.0     0.0     0.0     0.0                                                                 
SINNER2T 220INNERTKIT 1 0            0.0     0.0     0.0     0.0                                                                 
SINNER2U 220INNERTKIU 1 0            0.0     0.0     0.0     0.0                                                                 
SINNER31 150INNERTKI1 0 0 143.46     0.0     0.0     0.0     0.0                                                                 
SINNER32 150INNERTKI2 0 0 143.46     0.0     0.0     0.0     0.0                                                                 
SINNER33 150INNERTKI3 0 0 143.46     0.0     0.0     0.0     0.0                                                                 
SINNER34 150INNERTKI4 0 0 143.46     0.0     0.0     0.0     0.0                                                                 
SINNER35 150INNERTKI5 0 0 143.46     0.0     0.0     0.0     0.0                                                                 
SINNER36 150INNERTKI6 0 0 143.46     0.0     0.0     0.0     0.0                                                                 
SINNER3A 150INNERTKIA 1 2 143.46     0.0     0.0  -6.997  -2.377     0.0   -96.8    76.3   -31.5                               H 
SINNER3B 150INNERTKIB 1 2 143.46     0.0     0.0  -4.048  -2.377     0.0   -56.0    28.0   -16.0                               H 
SINNER3C 150INNERTKIC 1 2 143.46     0.0     0.0  -0.723  -2.377     4.6   -10.0    10.0    -6.0                               H 
SINNER3D 150INNERTKID 1 2 143.46     0.0     0.0  -3.614  -2.377     0.0   -50.0    38.0   -25.0                               H 
SINNER3E 150INNERTKIE 1 0 143.46  41.505  11.336     0.0     0.0                                                                 
SINNER3F 150INNERTKIF 1 2 143.46     0.0     0.0  -3.614  -2.377     0.0   -50.0    38.0   -25.0                               H 
SINNER3G 150INNERTKIG 1 0 143.46   1.933   1.083     0.0     0.0                                                                 
SINNER3H 150INNERTKIH 1 2 143.46     0.0     0.0  -3.614  -2.377     0.0   -50.0    38.0   -25.0                               H 
SINNER3I 150INNERTKII 1 0            0.0     0.0     0.0     0.0                                                                 
SINNER3J 150INNERTKIJ 1 2 143.46     0.0     0.0  -3.614  -2.377     0.0   -50.0    38.0   -25.0                               H 
SINNER3K 150INNERTKIK 1 0            0.0     0.0     0.0     0.0                                                                 
SINNER3L 150INNERTKIL 1 2 143.46     0.0     0.0  -3.614  -2.377     0.0   -50.0    38.0   -25.0                               H 
SINNER3M 150INNERTKIM 1 0            0.0     0.0     0.0     0.0     0.0 -153.66    76.8   -76.8                               H 
SINNER61 _12INNERTKI1 0 0 79.375     0.0     0.0     0.0     0.0                                                                 
SINNER71 _24INNERTKI1 0 0 28.894     0.0     0.0     0.0     0.0                                                                 
SINNER7A _24INNERTKIA 1 0            0.0     0.0     0.0     0.0                                                                 
SIRAGN21 220IRAGNA__1 0 0 233.40     0.0     0.0     0.0     0.0                                                                 
SIRAGN2A 220IRAGNA__A 1 0            0.0     0.0     0.0     0.0                                                                 
SIRAGN2B 220IRAGNA__B 1 0 233.40   4.364  -1.542     0.0     0.0                                                                 
SKERZE21 220KERZERS_1 0 0 235.33     0.0     0.0     0.0     0.0                                                                 
SKERZE22 220KERZERS_2 0 0 235.33     0.0     0.0     0.0     0.0                                                                 
SKERZE2A 220KERZERS_A 1 0 235.33  19.786  -1.263     0.0     0.0                                                                 
SKERZE2B 220KERZERS_B 1 0 235.33     0.1  -2.472     0.0     0.0                                                                 
SLACHM21 220LACHMATT1 0 0 234.23     0.0     0.0     0.0     0.0                                                                 
SLACHM22 220LACHMATT2 0 0 234.23     0.0     0.0     0.0     0.0                                                                 
SLACHM2A 220LACHMATTA 1 0            0.0     0.0     0.0     0.0                                                                 
SLACHM2B 220LACHMATTB 1 0 234.23  33.775  11.414     0.0     0.0                                                                 
SLACHM2C 220LACHMATTC 1 0 234.23  63.021  -2.115     0.0     0.0                                                                 
SLAUFE11 380LAUFENBU1 0 0 409.30     0.0     0.0     0.0     0.0                                                                 
SLAUFE12 380LAUFENBU2 0 0 409.30     0.0     0.0     0.0     0.0                                                                 
SLAUFE13 380LAUFENBU3 0 0 409.30     0.0     0.0     0.0     0.0                                                                 
SLAUFE14 380LAUFENBU4 0 0 409.30     0.0     0.0     0.0     0.0                                                                 
SLAUFE15 380LAUFENBU5 0 0 409.30     0.0     0.0     0.0     0.0                                                                 
SLAUFE16 380LAUFENBU6 0 0 409.30     0.0     0.0     0.0     0.0                                                                 
SLAUFE17 380LAUFENBU7 0 0 410.14     0.0     0.0     0.0     0.0                                                                 
SLAUFE18 380LAUFENBU8 0 0 410.14     0.0     0.0     0.0     0.0                                                                 
SLAUFE19 380LAUFENBU9 0 0 410.14     0.0     0.0     0.0     0.0                                                                 
SLAUFE1A 380LAUFENBUA 0 0 410.14     0.0     0.0     0.0     0.0                                                                 
SLAUFE1B 380LAUFENBUB 0 0 410.14     0.0     0.0     0.0     0.0                                                                 
SLAUFE1C 380LAUFENBUC 0 0 410.14     0.0     0.0     0.0     0.0                                                                 
SLAUFE1D 380LAUFENBUD 0 0            0.0     0.0     0.0     0.0                                                                 
SLAUFE1E 380LAUFENBUE 0 0            0.0     0.0     0.0     0.0                                                                 
SLAUFE1F 380LAUFENBUF 0 0            0.0     0.0     0.0     0.0                                                                 
SLAUFE1G 380LAUFENBUG 0 0            0.0     0.0     0.0     0.0                                                                 
SLAUFE1H 380LAUFENBUH 0 0            0.0     0.0     0.0     0.0                                                                 
SLAUFE1I 380LAUFENBUI 0 0            0.0     0.0     0.0     0.0                                                                 
SLAUFE1J 380LAUFENBUJ 0 0            0.0     0.0     0.0     0.0                                                                 
SLAUFE21 220LAUFENBU1 0 0 237.78     0.0     0.0     0.0     0.0                                                                 
SLAUFE22 220LAUFENBU2 0 0 237.78     0.0     0.0     0.0     0.0                                                                 
SLAUFE23 220LAUFENBU3 0 0 237.78     0.0     0.0     0.0     0.0                                                                 
SLAUFE24 220LAUFENBU4 0 0 235.62     0.0     0.0     0.0     0.0                                                                 
SLAUFE25 220LAUFENBU5 0 0 235.62     0.0     0.0     0.0     0.0                                                                 
SLAUFE26 220LAUFENBU6 0 0 235.62     0.0     0.0     0.0     0.0                                                                 
SLAUFE2A 220LAUFENBUA 1 0 237.78  29.429  -9.576     0.0     0.0                                                                 
SLAUFE2T 220LAUFENBUT 1 0            0.0     0.0     0.0     0.0                                                                 
SLAUFE71 _27LAUFENBU1 0 0 26.154     0.0     0.0     0.0     0.0                                                                 
SLAVOR11 380LAVORGO_1 0 0 404.70     0.0     0.0     0.0     0.0                                                                 
SLAVOR12 380LAVORGO_2 0 0 404.70     0.0     0.0     0.0     0.0                                                                 
SLAVOR13 380LAVORGO_3 0 0 404.70     0.0     0.0     0.0     0.0                                                                 
SLAVOR14 380LAVORGO_4 0 0 404.70     0.0     0.0     0.0     0.0                                                                 
SLAVOR15 380LAVORGO_5 0 0            0.0     0.0     0.0     0.0                                                                 
SLAVOR16 380LAVORGO_6 0 0            0.0     0.0     0.0     0.0                                                                 
SLAVOR21 220LAVORGO_1 0 0 232.84     0.0     0.0     0.0     0.0                                                                 
SLAVOR22 220LAVORGO_2 0 0 232.84     0.0     0.0     0.0     0.0                                                                 
SLAVOR23 220LAVORGO_3 0 0 232.84     0.0     0.0     0.0     0.0                                                                 
SLAVOR24 220LAVORGO_4 0 0 232.84     0.0     0.0     0.0     0.0                                                                 
SLAVOR25 220LAVORGO_5 0 0            0.0     0.0     0.0     0.0                                                                 
SLAVOR26 220LAVORGO_6 0 0            0.0     0.0     0.0     0.0                                                                 
SLAVOR2A 220LAVORGO_A 1 0 232.84  18.225   1.309     0.0     0.0                                                                 
SLAVOR2T 220LAVORGO_T 1 0            0.0     0.0     0.0     0.0                                                                 
SLAVOR71 _30LAVORGO_1 0 0 27.042     0.0     0.0     0.0     0.0                                                                 
SLEIBS11 380LEIBSTAD1 0 0 409.57     0.0     0.0     0.0     0.0                                                                 
SLEIBS12 380LEIBSTAD2 0 0 409.57     0.0     0.0     0.0     0.0                                                                 
SLEIBS13 380LEIBSTAD3 0 0 409.57     0.0     0.0     0.0     0.0                                                                 
SLEIBS14 380LEIBSTAD4 0 0            0.0     0.0     0.0     0.0                                                                 
SLEIBS1A 380LEIBSTADA 1 2 409.57     0.0     0.0   -1212  38.953    50.0 -1245.0   600.0  -300.0                               N 
SLINDE21 220LINDENHO1 0 0 237.75     0.0     0.0     0.0     0.0                                                                 
SLINDE22 220LINDENHO2 0 0 237.75     0.0     0.0     0.0     0.0                                                                 
SLINDE2A 220LINDENHOA 1 0 237.75  28.291 -30.466     0.0     0.0                                                                 
...